<?xml version="1.0" encoding="UTF-8"?>

<!-- generated on 2026-06-27 15:02:00.581969 by Eclipse SUMO osmWebWizard.py v1.27.1
<configuration>
    <net-file value="/home/bhavanish/.gemini/antigravity/scratch/maestro-fl/2026-06-27-15-01-53/osm.net.xml.gz"/>
    <output-trip-file value="/home/bhavanish/.gemini/antigravity/scratch/maestro-fl/2026-06-27-15-01-53/osm.passenger.trips.xml"/>
    <route-file value="/home/bhavanish/.gemini/antigravity/scratch/maestro-fl/2026-06-27-15-01-53/osm.passenger.rou.xml"/>
    <prefix value="veh"/>
    <trip-attributes value="departLane=&quot;best&quot;"/>
    <fringe-start-attributes value="departSpeed=&quot;max&quot;"/>
    <vehicle-class value="passenger"/>
    <lanes value="True"/>
    <fringe-factor value="5"/>
    <allow-fringe.min-length value="1000.0"/>
    <edge-permission value="passenger"/>
    <via-edge-types value="highway.motorway,highway.motorway_link,highway.trunk_link,highway.primary_link,highway.secondary_link,highway.tertiary_link"/>
    <min-distance value="300.0"/>
    <min-distance.fringe value="10.0"/>
    <remove-loops value="True"/>
    <insertion-density value="12.0"/>
</configuration>
-->

<routes xmlns:xsi="http://www.w3.org/2001/XMLSchema-instance" xsi:noNamespaceSchemaLocation="http://sumo.dlr.de/xsd/routes_file.xsd">
    <vType id="veh_passenger" vClass="passenger"/>
    <vType id="emergency" vClass="emergency" guiShape="emergency" color="red" speedFactor="1.5"/>
    <trip id="veh0" depart="0.00" from="172930627#0" to="-1102792428" departLane="best" type="veh_passenger" departSpeed="max"/>
    <trip id="veh1" depart="6.22" from="-40633859#8" to="-309584105#0" departLane="best" type="veh_passenger" departSpeed="max"/>
    <trip id="veh2" depart="12.45" from="28087618#0" to="172930638#4" departLane="best" type="veh_passenger" departSpeed="max"/>
    <trip id="veh3" depart="18.67" from="40633864#0" to="-172930620#2" departLane="best" type="veh_passenger" departSpeed="max"/>
    <trip id="veh4" depart="24.89" from="1044521115#2" to="-1102792428" departLane="best" type="veh_passenger"/>
    <trip id="veh5" depart="31.12" from="-1102793342" to="-28104729#0" departLane="best" type="veh_passenger" departSpeed="max"/>
    <trip id="veh6" depart="37.34" from="32424487" to="27673609#2" departLane="best" type="veh_passenger" departSpeed="max"/>
    <trip id="veh7" depart="43.57" from="-1350390280#1" to="-172930627#0" departLane="best" type="veh_passenger"/>
    <trip id="veh8" depart="49.79" from="40633856#1" to="1347260864#5" departLane="best" type="veh_passenger"/>
    <trip id="veh9" depart="56.01" from="32424806" to="28113125#1" departLane="best" type="veh_passenger"/>
    <trip id="veh10" depart="62.24" from="1259589337#0" to="780912686#1" departLane="best" type="veh_passenger" departSpeed="max"/>
    <trip id="veh11" depart="68.46" from="40633855#3" to="1494536871#1" departLane="best" type="veh_passenger"/>
    <trip id="veh12" depart="74.68" from="40633858#2" to="1347255635#1" departLane="best" type="veh_passenger"/>
    <trip id="veh13" depart="80.91" from="259484452#3" to="-1130838046" departLane="best" type="veh_passenger"/>
    <trip id="veh14" depart="87.13" from="-780753380" to="-28113125#0" departLane="best" type="veh_passenger" departSpeed="max"/>
    <trip id="veh15" depart="93.36" from="172930631#0" to="1350390280#1" departLane="best" type="veh_passenger" departSpeed="max"/>
    <trip id="veh16" depart="99.58" from="-27791621#4" to="28113125#1" departLane="best" type="veh_passenger"/>
    <trip id="veh17" depart="105.80" from="133951478#1" to="23075332#3" departLane="best" type="veh_passenger"/>
    <trip id="veh18" depart="112.03" from="40633856#0" to="334716569#1" departLane="best" type="veh_passenger" departSpeed="max"/>
    <trip id="veh19" depart="118.25" from="-31561309#2" to="-1102792429#1" departLane="best" type="veh_passenger"/>
    <trip id="veh20" depart="124.47" from="-554198053#2" to="-40633855#0" departLane="best" type="veh_passenger" departSpeed="max"/>
    <trip id="veh21" depart="130.70" from="40633859#5" to="-40633865" departLane="best" type="veh_passenger"/>
    <trip id="veh22" depart="136.92" from="-40633859#0" to="-32424487" departLane="best" type="veh_passenger"/>
    <trip id="veh23" depart="143.15" from="133951482" to="-334716569#1" departLane="best" type="veh_passenger" departSpeed="max"/>
    <trip id="veh24" depart="149.37" from="1347260864#5" to="763589765" departLane="best" type="veh_passenger"/>
    <trip id="veh25" depart="155.59" from="-799788864#0" to="-309584105#0" departLane="best" type="veh_passenger"/>
    <trip id="veh26" depart="161.82" from="995160694#0" to="1222891447#4" departLane="best" type="veh_passenger"/>
    <trip id="veh27" depart="168.04" from="-1350390280#0" to="-1148415187#0" departLane="best" type="veh_passenger"/>
    <trip id="veh28" depart="174.26" from="-169817047#1" to="169121710#1" departLane="best" type="veh_passenger"/>
    <trip id="veh29" depart="180.49" from="799788865" to="1222891449#0" departLane="best" type="veh_passenger"/>
    <trip id="veh30" depart="186.71" from="-1102792424" to="28104729#2" departLane="best" type="veh_passenger" departSpeed="max"/>
    <trip id="veh31" depart="192.94" from="23075332#0" to="1250182995" departLane="best" type="veh_passenger" departSpeed="max"/>
    <trip id="veh32" depart="199.16" from="-40633859#1" to="169817047#1" departLane="best" type="veh_passenger"/>
    <trip id="veh33" depart="205.38" from="1125669870#1" to="780753380" departLane="best" type="veh_passenger"/>
    <trip id="veh34" depart="211.61" from="-40633863" to="169121710#1" departLane="best" type="veh_passenger" departSpeed="max"/>
    <trip id="veh35" depart="217.83" from="146449643#0" to="-259484452#5" departLane="best" type="veh_passenger" departSpeed="max"/>
    <trip id="veh36" depart="224.05" from="28113051" to="1250182995" departLane="best" type="veh_passenger"/>
    <trip id="veh37" depart="230.28" from="-1044521115#0" to="-40633866" departLane="best" type="veh_passenger"/>
    <trip id="veh38" depart="236.50" from="40633860#1" to="40633859#8" departLane="best" type="veh_passenger"/>
    <trip id="veh39" depart="242.73" from="-40633867" to="-1148415187#3" departLane="best" type="veh_passenger" departSpeed="max"/>
    <trip id="veh40" depart="248.95" from="40633860#1" to="780428221#7" departLane="best" type="veh_passenger"/>
    <trip id="veh41" depart="255.17" from="-133951477" to="1125669870#0" departLane="best" type="veh_passenger"/>
    <trip id="veh42" depart="261.40" from="-1183386157" to="309584108" departLane="best" type="veh_passenger"/>
    <trip id="veh43" depart="267.62" from="28113125#0" to="-23075332#3" departLane="best" type="veh_passenger" departSpeed="max"/>
    <trip id="veh44" depart="273.84" from="1148415187#2" to="1259589338#1" departLane="best" type="veh_passenger"/>
    <trip id="veh45" depart="280.07" from="-40633859#0" to="462900086#3" departLane="best" type="veh_passenger"/>
    <trip id="veh46" depart="286.29" from="1044521115#2" to="-28113125#0" departLane="best" type="veh_passenger"/>
    <trip id="veh47" depart="292.51" from="799788864#4" to="172930625#1" departLane="best" type="veh_passenger"/>
    <trip id="veh48" depart="298.74" from="1102792426" to="1222891447#7" departLane="best" type="veh_passenger" departSpeed="max"/>
    <trip id="veh49" depart="304.96" from="-172930631#1" to="-309584105#0" departLane="best" type="veh_passenger"/>
    <trip id="veh50" depart="311.19" from="-32424806" to="-309584105#0" departLane="best" type="veh_passenger"/>
    <trip id="veh51" depart="317.41" from="40633858#0" to="-133951482" departLane="best" type="veh_passenger"/>
    <trip id="veh52" depart="323.63" from="-38042298#1" to="172930633#4" departLane="best" type="veh_passenger"/>
    <trip id="veh53" depart="329.86" from="1044521115#3" to="1102793343" departLane="best" type="veh_passenger"/>
    <trip id="veh54" depart="336.08" from="780435844" to="-172930627#1" departLane="best" type="veh_passenger"/>
    <trip id="veh55" depart="342.30" from="-799788864#2" to="-554187870#0" departLane="best" type="veh_passenger"/>
    <trip id="veh56" depart="348.53" from="40633858#2" to="-32424487" departLane="best" type="veh_passenger"/>
    <trip id="veh57" depart="354.75" from="-28104740#0" to="1102792429#0" departLane="best" type="veh_passenger"/>
    <trip id="veh58" depart="360.98" from="1044521115#2" to="-40633858#5" departLane="best" type="veh_passenger"/>
    <trip id="veh59" depart="367.20" from="1102792428" to="40633867" departLane="best" type="veh_passenger" departSpeed="max"/>
    <trip id="veh60" depart="373.42" from="1259589338#3" to="-1148415187#0" departLane="best" type="veh_passenger"/>
    <trip id="veh61" depart="379.65" from="995160694#1" to="40633860#1" departLane="best" type="veh_passenger"/>
    <trip id="veh62" depart="385.87" from="40633856#2" to="-27791621#0" departLane="best" type="veh_passenger"/>
    <trip id="veh63" depart="392.09" from="1213755821" to="-28113125#0" departLane="best" type="veh_passenger" departSpeed="max"/>
    <trip id="veh64" depart="398.32" from="-40633859#0" to="40633855#1" departLane="best" type="veh_passenger"/>
    <trip id="veh65" depart="404.54" from="133951478#0" to="28104729#0" departLane="best" type="veh_passenger"/>
    <trip id="veh66" depart="410.77" from="-238507647#0" to="-40633861#0" departLane="best" type="veh_passenger"/>
    <trip id="veh67" depart="416.99" from="1259589337#3" to="309584105#3" departLane="best" type="veh_passenger"/>
    <trip id="veh68" depart="423.21" from="-1125669870#3" to="1347255635#2" departLane="best" type="veh_passenger"/>
    <trip id="veh69" depart="429.44" from="1390291153#0" to="172930638#4" departLane="best" type="veh_passenger" departSpeed="max"/>
    <trip id="veh70" depart="435.66" from="-334716569#1" to="-172930638#3" departLane="best" type="veh_passenger"/>
    <trip id="veh71" depart="441.88" from="40633861#3" to="-32424487" departLane="best" type="veh_passenger"/>
    <trip id="veh72" depart="448.11" from="1390291153#0" to="1494536871#1" departLane="best" type="veh_passenger" departSpeed="max"/>
    <trip id="veh73" depart="454.33" from="1044521115#0" to="1347255635#2" departLane="best" type="veh_passenger"/>
    <trip id="veh74" depart="460.56" from="172930638#0" to="-40633861#0" departLane="best" type="veh_passenger"/>
    <trip id="veh75" depart="466.78" from="-554198053#2" to="309584107#0" departLane="best" type="veh_passenger" departSpeed="max"/>
    <trip id="veh76" depart="473.00" from="995160694#0" to="799788865" departLane="best" type="veh_passenger"/>
    <trip id="veh77" depart="479.23" from="40633861#0" to="554198053#2" departLane="best" type="veh_passenger" departSpeed="max"/>
    <trip id="veh78" depart="485.45" from="-780753380" to="-27673609#3" departLane="best" type="veh_passenger" departSpeed="max"/>
    <trip id="veh79" depart="491.67" from="40633856#0" to="27791621#4" departLane="best" type="veh_passenger" departSpeed="max"/>
    <trip id="veh80" depart="497.90" from="146449643#2" to="799788864#4" departLane="best" type="veh_passenger"/>
    <trip id="veh81" depart="504.12" from="172930631#0" to="-1044521115#5" departLane="best" type="veh_passenger" departSpeed="max"/>
    <trip id="veh82" depart="510.35" from="334716569#0" to="-40633861#0" departLane="best" type="veh_passenger" departSpeed="max"/>
    <trip id="veh83" depart="516.57" from="172930632" to="780428221#6" departLane="best" type="veh_passenger" departSpeed="max"/>
    <trip id="veh84" depart="522.79" from="-40633859#8" to="1347260864#5" departLane="best" type="veh_passenger" departSpeed="max"/>
    <trip id="veh85" depart="529.02" from="27791621#0" to="-28104740#1" departLane="best" type="veh_passenger" departSpeed="max"/>
    <trip id="veh86" depart="535.24" from="172930620#2" to="-38042298#0" departLane="best" type="veh_passenger"/>
    <trip id="veh87" depart="541.46" from="40633856#1" to="-172930627#0" departLane="best" type="veh_passenger"/>
    <trip id="veh88" depart="547.69" from="172930625#1" to="-334716569#1" departLane="best" type="veh_passenger"/>
    <trip id="veh89" depart="553.91" from="28087618#0" to="1259589338#1" departLane="best" type="veh_passenger" departSpeed="max"/>
    <trip id="veh90" depart="560.13" from="40633856#0" to="1347255635#2" departLane="best" type="veh_passenger" departSpeed="max"/>
    <trip id="veh91" depart="566.36" from="-172930638#4" to="-23075332#0" departLane="best" type="veh_passenger" departSpeed="max"/>
    <trip id="veh92" depart="572.58" from="40633864#1" to="-28113125#0" departLane="best" type="veh_passenger"/>
    <trip id="veh93" depart="578.81" from="-40633858#11" to="-172930631#0" departLane="best" type="veh_passenger" departSpeed="max"/>
    <trip id="veh94" depart="585.03" from="-799788864#5" to="1494536871#1" departLane="best" type="veh_passenger" departSpeed="max"/>
    <trip id="veh95" depart="591.25" from="40633858#5" to="780912686#1" departLane="best" type="veh_passenger"/>
    <trip id="veh96" depart="597.48" from="32424832#1" to="554198053#2" departLane="best" type="veh_passenger"/>
    <trip id="veh97" depart="603.70" from="32424487" to="462900086#0" departLane="best" type="veh_passenger" departSpeed="max"/>
    <trip id="veh98" depart="609.92" from="32424832#1" to="-38042300" departLane="best" type="veh_passenger"/>
    <trip id="veh99" depart="616.15" from="40633859#3" to="40633867" departLane="best" type="veh_passenger"/>
    <trip id="veh100" depart="622.37" from="1130838046" to="-40633861#3" departLane="best" type="veh_passenger" departSpeed="max"/>
    <trip id="veh101" depart="628.60" from="31560813#2" to="-309584105#2" departLane="best" type="veh_passenger"/>
    <trip id="veh102" depart="634.82" from="-1102793341" to="-28104713#2" departLane="best" type="veh_passenger" departSpeed="max"/>
    <trip id="veh103" depart="641.04" from="-169817047#0" to="1044521115#1" departLane="best" type="veh_passenger"/>
    <trip id="veh104" depart="647.27" from="146449643#0" to="1222891447#5" departLane="best" type="veh_passenger" departSpeed="max"/>
    <trip id="veh105" depart="653.49" from="-40633858#11" to="28087618#2" departLane="best" type="veh_passenger" departSpeed="max"/>
    <trip id="veh106" depart="659.71" from="1259589337#2" to="28104729#1" departLane="best" type="veh_passenger"/>
    <trip id="veh107" depart="665.94" from="-554198053#1" to="40633863" departLane="best" type="veh_passenger"/>
    <trip id="veh108" depart="672.16" from="27791621#0" to="-40633861#0" departLane="best" type="veh_passenger" departSpeed="max"/>
    <trip id="veh109" depart="678.39" from="-554187870#1" to="-799788864#2" departLane="best" type="veh_passenger"/>
    <trip id="veh110" depart="684.61" from="-799788864#2" to="-40633861#0" departLane="best" type="veh_passenger"/>
    <trip id="veh111" depart="690.83" from="-172930633#1" to="1044521113" departLane="best" type="veh_passenger"/>
    <trip id="veh112" depart="697.06" from="40633865" to="1350390280#4" departLane="best" type="veh_passenger" departSpeed="max"/>
    <trip id="veh113" depart="703.28" from="1044521116" to="1347255635#2" departLane="best" type="veh_passenger" departSpeed="max"/>
    <trip id="veh114" depart="709.50" from="172930631#0" to="1102793343" departLane="best" type="veh_passenger" departSpeed="max"/>
    <trip id="veh115" depart="715.73" from="1102792428" to="-28113125#0" departLane="best" type="veh_passenger" departSpeed="max"/>
    <trip id="veh116" depart="721.95" from="1148415187#1" to="763589766#1" departLane="best" type="veh_passenger"/>
    <trip id="veh117" depart="728.18" from="334716569#1" to="309584106" departLane="best" type="veh_passenger"/>
    <trip id="veh118" depart="734.40" from="172930638#1" to="-309584105#0" departLane="best" type="veh_passenger"/>
    <trip id="veh119" depart="740.62" from="-40633855#3" to="1102815944" departLane="best" type="veh_passenger"/>
    <trip id="veh120" depart="746.85" from="40633856#2" to="-133951482" departLane="best" type="veh_passenger"/>
    <trip id="veh121" depart="753.07" from="-995160694#0" to="169121710#1" departLane="best" type="veh_passenger"/>
    <trip id="veh122" depart="759.29" from="-28113051" to="27673609#1" departLane="best" type="veh_passenger"/>
    <trip id="veh123" depart="765.52" from="1222891447#4" to="-32424487" departLane="best" type="veh_passenger"/>
    <trip id="veh124" depart="771.74" from="172930631#1" to="-1044521115#3" departLane="best" type="veh_passenger"/>
    <trip id="veh125" depart="777.97" from="28104724#1" to="31561309#2" departLane="best" type="veh_passenger"/>
    <trip id="veh126" depart="784.19" from="-1494536871#1" to="1044521113" departLane="best" type="veh_passenger" departSpeed="max"/>
    <trip id="veh127" depart="790.41" from="1222891450#0" to="-1148415187#0" departLane="best" type="veh_passenger"/>
    <trip id="veh128" depart="796.64" from="-40633858#11" to="40633863" departLane="best" type="veh_passenger" departSpeed="max"/>
    <trip id="veh129" depart="802.86" from="1125669870#4" to="40633856#5" departLane="best" type="veh_passenger"/>
    <trip id="veh130" depart="809.08" from="172930633#0" to="799788864#4" departLane="best" type="veh_passenger"/>
    <trip id="veh131" depart="815.31" from="1390291153#0" to="780753380" departLane="best" type="veh_passenger" departSpeed="max"/>
    <trip id="veh132" depart="821.53" from="40633864#0" to="1350390280#4" departLane="best" type="veh_passenger" departSpeed="max"/>
    <trip id="veh133" depart="827.75" from="27791621#0" to="1222891447#3" departLane="best" type="veh_passenger" departSpeed="max"/>
    <trip id="veh134" depart="833.98" from="1148415187#2" to="-334716569#0" departLane="best" type="veh_passenger"/>
    <trip id="veh135" depart="840.20" from="-40633858#0" to="169121710#1" departLane="best" type="veh_passenger"/>
    <trip id="veh136" depart="846.43" from="28113125#0" to="1222891447#7-AddedOffRampEdge" departLane="best" type="veh_passenger" departSpeed="max"/>
    <trip id="veh137" depart="852.65" from="-40633859#8" to="-40633865" departLane="best" type="veh_passenger" departSpeed="max"/>
    <trip id="veh138" depart="858.87" from="1259589337#2" to="-238507647#0" departLane="best" type="veh_passenger"/>
    <trip id="veh139" depart="865.10" from="-32424806" to="259484452#5" departLane="best" type="veh_passenger"/>
    <trip id="veh140" depart="871.32" from="259484452#4" to="-133951477" departLane="best" type="veh_passenger"/>
    <trip id="veh141" depart="877.54" from="-799788864#5" to="1250182995" departLane="best" type="veh_passenger" departSpeed="max"/>
    <trip id="veh142" depart="883.77" from="-995160694#1" to="-28113051" departLane="best" type="veh_passenger"/>
    <trip id="veh143" depart="889.99" from="1347260864#5" to="27673609#0" departLane="best" type="veh_passenger"/>
    <trip id="veh144" depart="896.22" from="40633856#5" to="309584108" departLane="best" type="veh_passenger"/>
    <trip id="veh145" depart="902.44" from="-772157514" to="309584107#1" departLane="best" type="veh_passenger" departSpeed="max"/>
    <trip id="veh146" depart="908.66" from="1044521114#0" to="309584105#3" departLane="best" type="veh_passenger"/>
    <trip id="veh147" depart="914.89" from="-763589766#1" to="172930638#4" departLane="best" type="veh_passenger"/>
    <trip id="veh148" depart="921.11" from="-799788864#3" to="-27791621#0" departLane="best" type="veh_passenger"/>
    <trip id="veh149" depart="927.33" from="1148415187#0" to="-23075332#0" departLane="best" type="veh_passenger" departSpeed="max"/>
    <trip id="veh150" depart="933.56" from="169121710#0" to="-1102792428" departLane="best" type="veh_passenger" departSpeed="max"/>
    <trip id="veh151" depart="939.78" from="-1102793342" to="169817047#2" departLane="best" type="veh_passenger" departSpeed="max"/>
    <trip id="veh152" depart="946.01" from="-172930633#4" to="1102793342" departLane="best" type="veh_passenger" departSpeed="max"/>
    <trip id="veh153" depart="952.23" from="-1102815945" to="-772157517" departLane="best" type="veh_passenger" departSpeed="max"/>
    <trip id="veh154" depart="958.45" from="28104740#2" to="-772157517" departLane="best" type="veh_passenger"/>
    <trip id="veh155" depart="964.68" from="28104724#2" to="40633859#8" departLane="best" type="veh_passenger"/>
    <trip id="veh156" depart="970.90" from="-40633858#11" to="-169817047#1" departLane="best" type="veh_passenger" departSpeed="max"/>
    <trip id="veh157" depart="977.12" from="-1102793341" to="1250182995" departLane="best" type="veh_passenger" departSpeed="max"/>
    <trip id="veh158" depart="983.35" from="995160694#1" to="-554198055#1" departLane="best" type="veh_passenger"/>
    <trip id="veh159" depart="989.57" from="172930631#0" to="38042300" departLane="best" type="veh_passenger" departSpeed="max"/>
    <trip id="veh160" depart="995.80" from="172930631#0" to="309584107#1" departLane="best" type="veh_passenger" departSpeed="max"/>
    <trip id="veh161" depart="1002.02" from="-1102793341" to="-259484452#5" departLane="best" type="veh_passenger" departSpeed="max"/>
    <trip id="veh162" depart="1008.24" from="-172930633#0" to="172930638#0" departLane="best" type="veh_passenger"/>
    <trip id="veh163" depart="1014.47" from="133951482" to="-28113136" departLane="best" type="veh_passenger" departSpeed="max"/>
    <trip id="veh164" depart="1020.69" from="259484452#0" to="31560813#2" departLane="best" type="veh_passenger" departSpeed="max"/>
    <trip id="veh165" depart="1026.91" from="28104713#2" to="-172930633#2" departLane="best" type="veh_passenger"/>
    <trip id="veh166" depart="1033.14" from="334716569#1" to="780912685" departLane="best" type="veh_passenger"/>
    <trip id="veh167" depart="1039.36" from="-169817047#0" to="-1102792428" departLane="best" type="veh_passenger"/>
    <trip id="veh168" depart="1045.59" from="-554198053#0" to="172930638#4" departLane="best" type="veh_passenger"/>
    <trip id="veh169" depart="1051.81" from="772157519#0" to="-772157519#7" departLane="best" type="veh_passenger" departSpeed="max"/>
    <trip id="veh170" depart="1058.03" from="27673609#4" to="-133951482" departLane="best" type="veh_passenger"/>
    <trip id="veh171" depart="1064.26" from="238507646#0" to="169121710#1" departLane="best" type="veh_passenger" departSpeed="max"/>
    <trip id="veh172" depart="1070.48" from="-1494536871#1" to="32424806" departLane="best" type="veh_passenger" departSpeed="max"/>
    <trip id="veh173" depart="1076.70" from="40633856#2" to="1347260864#3" departLane="best" type="veh_passenger"/>
    <trip id="veh174" depart="1082.93" from="-172930631#1" to="799788864#1" departLane="best" type="veh_passenger"/>
    <trip id="veh175" depart="1089.15" from="40633856#2" to="40633859#1" departLane="best" type="veh_passenger"/>
    <trip id="veh176" depart="1095.37" from="172930625#0" to="40633859#8" departLane="best" type="veh_passenger"/>
    <trip id="veh177" depart="1101.60" from="259484452#4" to="1044521115#2" departLane="best" type="veh_passenger"/>
    <trip id="veh178" depart="1107.82" from="-40633859#5" to="40633858#11" departLane="best" type="veh_passenger"/>
    <trip id="veh179" depart="1114.05" from="1259589337#0" to="1102815945" departLane="best" type="veh_passenger" departSpeed="max"/>
    <trip id="veh180" depart="1120.27" from="1102792426" to="28113136" departLane="best" type="veh_passenger" departSpeed="max"/>
    <trip id="veh181" depart="1126.49" from="-40633859#3" to="40633863" departLane="best" type="veh_passenger"/>
    <trip id="veh182" depart="1132.72" from="40633855#4" to="-172930620#2" departLane="best" type="veh_passenger"/>
    <trip id="veh183" depart="1138.94" from="40633861#0" to="-32424487" departLane="best" type="veh_passenger" departSpeed="max"/>
    <trip id="veh184" depart="1145.16" from="1130838046" to="1350390280#4" departLane="best" type="veh_passenger" departSpeed="max"/>
    <trip id="veh185" depart="1151.39" from="40633856#3" to="-28087618#0" departLane="best" type="veh_passenger"/>
    <trip id="veh186" depart="1157.61" from="259484452#0" to="-40633858#2" departLane="best" type="veh_passenger" departSpeed="max"/>
    <trip id="veh187" depart="1163.84" from="-1102792424" to="780435844" departLane="best" type="veh_passenger" departSpeed="max"/>
    <trip id="veh188" depart="1170.06" from="-133951477" to="28104729#1" departLane="best" type="veh_passenger"/>
    <trip id="veh189" depart="1176.28" from="1213755821" to="309584107#4" departLane="best" type="veh_passenger" departSpeed="max"/>
    <trip id="veh190" depart="1182.51" from="238507646#0" to="172930620#1" departLane="best" type="veh_passenger" departSpeed="max"/>
    <trip id="veh191" depart="1188.73" from="1222891447#2" to="40633856#2" departLane="best" type="veh_passenger"/>
    <trip id="veh192" depart="1194.95" from="-1350390280#1" to="-309584105#0" departLane="best" type="veh_passenger"/>
    <trip id="veh193" depart="1201.18" from="238507646#0" to="-40633864#0" departLane="best" type="veh_passenger" departSpeed="max"/>
    <trip id="veh194" depart="1207.40" from="1347260864#4" to="1102815944" departLane="best" type="veh_passenger"/>
    <trip id="veh195" depart="1213.63" from="1259589337#0" to="1044521113" departLane="best" type="veh_passenger" departSpeed="max"/>
    <trip id="veh196" depart="1219.85" from="259484452#1" to="-40633855#2" departLane="best" type="veh_passenger"/>
    <trip id="veh197" depart="1226.07" from="-40633858#11" to="-172930638#3" departLane="best" type="veh_passenger" departSpeed="max"/>
    <trip id="veh198" depart="1232.30" from="-28104740#2" to="-172930638#3" departLane="best" type="veh_passenger"/>
    <trip id="veh199" depart="1238.52" from="1259589337#0" to="309584108" departLane="best" type="veh_passenger" departSpeed="max"/>
    <trip id="veh200" depart="1244.74" from="-28104729#0" to="-28113125#1" departLane="best" type="veh_passenger"/>
    <trip id="veh201" depart="1250.97" from="1213755821" to="28104740#2" departLane="best" type="veh_passenger" departSpeed="max"/>
    <trip id="veh202" depart="1257.19" from="780428221#2" to="1222891447#8" departLane="best" type="veh_passenger"/>
    <trip id="veh203" depart="1263.42" from="-40633860#2" to="-172930631#0" departLane="best" type="veh_passenger" departSpeed="max"/>
    <trip id="veh204" depart="1269.64" from="-28113051" to="-309584105#2" departLane="best" type="veh_passenger"/>
    <trip id="veh205" depart="1275.86" from="-28104713#2" to="-1044521116" departLane="best" type="veh_passenger"/>
    <trip id="veh206" depart="1282.09" from="1259589337#0" to="-40633858#0" departLane="best" type="veh_passenger" departSpeed="max"/>
    <trip id="veh207" depart="1288.31" from="259484452#0" to="-23075332#0" departLane="best" type="veh_passenger" departSpeed="max"/>
    <trip id="veh208" depart="1294.53" from="40633858#9" to="1125669870#4" departLane="best" type="veh_passenger"/>
    <trip id="veh209" depart="1300.76" from="1148415187#0" to="1102792424" departLane="best" type="veh_passenger" departSpeed="max"/>
    <trip id="veh210" depart="1306.98" from="38042298#1" to="-780435844" departLane="best" type="veh_passenger"/>
    <trip id="veh211" depart="1313.20" from="-1102815945" to="-259484452#3" departLane="best" type="veh_passenger" departSpeed="max"/>
    <trip id="veh212" depart="1319.43" from="133951482" to="-40633861#2" departLane="best" type="veh_passenger" departSpeed="max"/>
    <trip id="veh213" depart="1325.65" from="799788864#3" to="-172930638#2" departLane="best" type="veh_passenger"/>
    <trip id="veh214" depart="1331.88" from="1222891450#3" to="1102793341" departLane="best" type="veh_passenger"/>
    <trip id="veh215" depart="1338.10" from="1102792428" to="40633867" departLane="best" type="veh_passenger" departSpeed="max"/>
    <trip id="veh216" depart="1344.32" from="169121710#0" to="1350390280#4" departLane="best" type="veh_passenger" departSpeed="max"/>
    <trip id="veh217" depart="1350.55" from="28087618#0" to="780435844" departLane="best" type="veh_passenger" departSpeed="max"/>
    <trip id="veh218" depart="1356.77" from="172930632" to="-27673609#2" departLane="best" type="veh_passenger" departSpeed="max"/>
    <trip id="veh219" depart="1362.99" from="-1044521115#1" to="1102793341" departLane="best" type="veh_passenger"/>
    <trip id="veh220" depart="1369.22" from="1390291153#0" to="-40633860#0" departLane="best" type="veh_passenger" departSpeed="max"/>
    <trip id="veh221" depart="1375.44" from="-32424806" to="28087618#1" departLane="best" type="veh_passenger"/>
    <trip id="veh222" depart="1381.67" from="259484452#1" to="1102793341" departLane="best" type="veh_passenger"/>
    <trip id="veh223" depart="1387.89" from="172930632" to="780428221#2" departLane="best" type="veh_passenger" departSpeed="max"/>
    <trip id="veh224" depart="1394.11" from="40633855#1" to="-133951482" departLane="best" type="veh_passenger"/>
    <trip id="veh225" depart="1400.34" from="-27673609#2" to="-40633864#0" departLane="best" type="veh_passenger"/>
    <trip id="veh226" depart="1406.56" from="28104724#0" to="133951478#0" departLane="best" type="veh_passenger"/>
    <trip id="veh227" depart="1412.78" from="-40633861#1" to="-23075332#0" departLane="best" type="veh_passenger"/>
    <trip id="veh228" depart="1419.01" from="-1102815944" to="1044521115#0" departLane="best" type="veh_passenger" departSpeed="max"/>
    <trip id="veh229" depart="1425.23" from="-554198055#0" to="-32424806" departLane="best" type="veh_passenger"/>
    <trip id="veh230" depart="1431.46" from="40633856#0" to="1347255635#0" departLane="best" type="veh_passenger" departSpeed="max"/>
    <trip id="veh231" depart="1437.68" from="172930638#1" to="-40633855#1" departLane="best" type="veh_passenger"/>
    <trip id="veh232" depart="1443.90" from="1148415187#0" to="172930627#1" departLane="best" type="veh_passenger" departSpeed="max"/>