<?xml version="1.0" encoding="UTF-8"?>

<!-- generated on 2026-06-27 15:01:59.433966 by Eclipse SUMO osmWebWizard.py v1.27.1
<configuration>
    <net-file value="/home/bhavanish/.gemini/antigravity/scratch/maestro-fl/2026-06-27-15-01-53/osm.net.xml.gz"/>
    <ptlines-file value="/home/bhavanish/.gemini/antigravity/scratch/maestro-fl/2026-06-27-15-01-53/osm_ptlines.xml"/>
    <ptstops-file value="/home/bhavanish/.gemini/antigravity/scratch/maestro-fl/2026-06-27-15-01-53/osm_stops.add.xml"/>
    <output-file value="/home/bhavanish/.gemini/antigravity/scratch/maestro-fl/2026-06-27-15-01-53/osm_pt.rou.xml"/>
    <stopinfos-file value="/home/bhavanish/.gemini/antigravity/scratch/maestro-fl/2026-06-27-15-01-53/stopinfos.xml"/>
    <routes-file value="/home/bhavanish/.gemini/antigravity/scratch/maestro-fl/2026-06-27-15-01-53/vehroutes.xml"/>
    <trips-file value="/home/bhavanish/.gemini/antigravity/scratch/maestro-fl/2026-06-27-15-01-53/trips.trips.xml"/>
    <min-stops value="0"/>
    <extend-to-fringe value="True"/>
    <random-begin value="True"/>
    <seed value="42"/>
    <ignore-errors value="True"/>
    <types value="bus,tram,subway,light_rail,train,trolleybus,monorail,minibus,share_taxi,ferry,aerialway"/>
    <vtype-prefix value="pt_"/>
    <verbose value="True"/>
</configuration>
-->

<routes xmlns:xsi="http://www.w3.org/2001/XMLSchema-instance" xsi:noNamespaceSchemaLocation="http://sumo.dlr.de/xsd/routes_file.xsd">
    <vType id="pt_bus" vClass="bus"/>
    <vType id="pt_tram" vClass="tram"/>
    <vType id="pt_train" vClass="rail"/>
    <vType id="pt_subway" vClass="subway"/>
    <vType id="pt_light_rail" vClass="rail_urban"/>
    <vType id="pt_monorail" vClass="rail_urban"/>
    <vType id="pt_trolleybus" vClass="bus"/>
    <vType id="pt_minibus" vClass="bus"/>
    <vType id="pt_share_taxi" vClass="taxi"/>
    <vType id="pt_aerialway" vClass="cable_car" length="2.5" width="2" personCapacity="4"/>
    <vType id="pt_ferry" vClass="ship"/>
    <route id="pt_bus_375:0" edges="1350390280#1" >
        <stop busStop="2396394290" duration="20" until="49.0"/> <!-- Jayanagara 40th Cross -->
    </route>
    <route id="pt_bus_AS1:0" edges="462900086#0 462900086#1 462900086#2 462900086#3" >
    </route>
    <route id="pt_subway_Green:0" color="0,153,51" edges="607901283#1 607901283#1" >
        <stop busStop="5760198466" duration="20" until="91.0" jump="41.512810578998376"/> <!-- Banashankari -->
    </route>
    <route id="pt_subway_Green:1" color="0,153,51" edges="549256475#0 549256475#1" >
        <stop busStop="1565099104" duration="20" until="34.0"/> <!-- Rashtreeya Vidyalaya Road -->
        <stop busStop="1070314237" duration="20" until="129.0"/> <!-- Banashankari -->
    </route>
    <route id="pt_subway_Green:2" color="0,153,51" edges="607901283#1 607901283#1" >
        <stop busStop="5760198466" duration="20" until="90.0" jump="41.512810578998376"/> <!-- Banashankari -->
    </route>
    <route id="pt_subway_Green:3" color="0,153,51" edges="549256475#0 549256475#1" >
        <stop busStop="1565099104" duration="20" until="33.0"/> <!-- Rashtreeya Vidyalaya Road -->
        <stop busStop="1070314237" duration="20" until="128.0"/> <!-- Banashankari -->
    </route>
    <route id="pt_subway_Yellow:0" color="yellow" edges="1299917515" >
        <stop busStop="12040966324" duration="20" until="47.0"/> <!-- Central Silk Board -->
        <stop busStop="13046007576" duration="20" until="148.0"/> <!-- BTM Layout -->
        <stop busStop="13046007577" duration="20" until="227.0"/> <!-- Jayadeva Hospital -->
        <stop busStop="13046011005" duration="20" until="326.0"/> <!-- Ragigudda -->
        <stop busStop="13046011008" duration="20" until="421.0"/> <!-- Rashtreeya Vidyalaya Road -->
    </route>
    <route id="pt_subway_Yellow:1" color="yellow" edges="1299917516" >
        <stop busStop="13046011007" duration="20" until="42.0"/> <!-- Rashtreeya Vidyalaya Road -->
        <stop busStop="13046011006" duration="20" until="135.0"/> <!-- Ragigudda -->
        <stop busStop="13046007578" duration="20" until="232.0"/> <!-- Jayadeva Hospital -->
        <stop busStop="13046007575" duration="20" until="312.0"/> <!-- BTM Layout -->
        <stop busStop="13046007574" duration="20" until="411.0"/> <!-- Central Silk Board -->
    </route>
    <flow id="pt_subway_Green:0" type="pt_subway" route="pt_subway_Green:0" begin="15.0" end="3615.0" period="300" line="Green:0" >
        <param key="name" value="Green Line (Silk Institute -&gt; Peenya Industry)"/>
        <param key="completeness" value="0.08"/>
    </flow>
    <flow id="pt_subway_Green:1" type="pt_subway" route="pt_subway_Green:1" begin="52.0" end="3652.0" period="300" line="Green:1" >
        <param key="name" value="Green Line (Peenya Industry -&gt; Silk Institute)"/>
        <param key="completeness" value="0.08"/>
    </flow>
    <flow id="pt_subway_Green:2" type="pt_subway" route="pt_subway_Green:2" begin="133.0" end="3733.0" period="600" line="Green:2" >
        <param key="name" value="Green Line (Silk Institute -&gt; Madavara)"/>
        <param key="completeness" value="0.06"/>
    </flow>
    <flow id="pt_subway_Yellow:0" type="pt_subway" route="pt_subway_Yellow:0" begin="165.0" end="3765.0" period="600" line="Yellow:0" >
        <param key="name" value="Yellow Line (Delta Electronics Bommasandra → Rashtreeya Vidyalaya Road)"/>
        <param key="completeness" value="0.31"/>
    </flow>
    <flow id="pt_subway_Yellow:1" type="pt_subway" route="pt_subway_Yellow:1" begin="383.0" end="3983.0" period="600" line="Yellow:1" >
        <param key="name" value="Yellow Line (Rashtreeya Vidyalaya Road → Delta Electronics Bommasandra)"/>
        <param key="completeness" value="0.31"/>
    </flow>
    <flow id="pt_bus_AS1:0" type="pt_bus" route="pt_bus_AS1:0" begin="406.0" end="4006.0" period="600" line="AS1:0" >
        <param key="name" value="AS1"/>
        <param key="completeness" value="0.00"/>
    </flow>
    <flow id="pt_subway_Green:3" type="pt_subway" route="pt_subway_Green:3" begin="441.0" end="4041.0" period="600" line="Green:3" >
        <param key="name" value="Green Line (Madavara -&gt; Silk Institute)"/>
        <param key="completeness" value="0.06"/>
    </flow>
    <flow id="pt_bus_375:0" type="pt_bus" route="pt_bus_375:0" begin="535.0" end="4135.0" period="600" line="375:0" >
        <param key="name" value="375: Byrasandra =&gt; Shirke KHB Quarters"/>
        <param key="completeness" value="0.03"/>
    </flow>
</routes>
