<?xml version="1.0" encoding="UTF-8"?>

<!-- generated on 2026-06-28T19:58:01.698075+05:30 by Eclipse SUMO netconvert 1.27.1
<netconvertConfiguration xmlns:xsi="http://www.w3.org/2001/XMLSchema-instance" xsi:noNamespaceSchemaLocation="http://sumo.dlr.de/xsd/netconvertConfiguration.xsd">

    <input>
        <sumo-net-file value="osm.net.xml.gz"/>
    </input>

    <output>
        <output-file value="osm_fixed.net.xml"/>
        <output.street-names value="true"/>
    </output>

    <processing>
        <geometry.min-radius.fix.railways value="false"/>
        <geometry.avoid-overlap value="false"/>
        <geometry.max-grade.fix value="false"/>
        <offset.disable-normalization value="true"/>
        <roundabouts.guess value="true"/>
    </processing>

    <junctions>
        <no-turnarounds value="true"/>
    </junctions>

    <report>
        <ignore-errors.connections value="true"/>
    </report>

</netconvertConfiguration>
-->

<net version="1.20" junctionCornerDetail="5" limitTurnSpeed="5.50" avoidOverlap="0" xmlns:xsi="http://www.w3.org/2001/XMLSchema-instance" xsi:noNamespaceSchemaLocation="http://sumo.dlr.de/xsd/net_file.xsd">

    <location netOffset="-779245.15,-1428698.92" convBoundary="0.00,0.00,5231.55,2192.26" origBoundary="77.573451,12.910982,77.621624,12.930766" projParameter="+proj=utm +zone=43 +ellps=WGS84 +datum=WGS84 +units=m +no_defs"/>

    <type id="highway.footway" priority="1" numLanes="1" speed="2.78" allow="pedestrian" oneway="1" width="2.00"/>
    <type id="highway.living_street" priority="2" numLanes="1" speed="2.78" disallow="tram rail_urban rail rail_electric rail_fast ship container cable_car subway aircraft wheelchair scooter drone" oneway="0"/>
    <type id="highway.path" priority="1" numLanes="1" speed="5.56" allow="pedestrian bicycle" oneway="0" width="2.00"/>
    <type id="highway.primary" priority="12" numLanes="2" speed="27.78" disallow="tram rail_urban rail rail_electric rail_fast ship container cable_car subway aircraft wheelchair scooter drone" oneway="0"/>
    <type id="highway.primary_link" priority="7" numLanes="1" speed="22.22" disallow="tram rail_urban rail rail_electric rail_fast ship container cable_car subway aircraft wheelchair scooter drone" oneway="0"/>
    <type id="highway.residential" priority="3" numLanes="1" speed="13.89" disallow="tram rail_urban rail rail_electric rail_fast ship container cable_car subway aircraft wheelchair scooter drone" oneway="0"/>
    <type id="highway.secondary" priority="11" numLanes="1" speed="27.78" disallow="tram rail_urban rail rail_electric rail_fast ship container cable_car subway aircraft wheelchair scooter drone" oneway="0"/>
    <type id="highway.service" priority="1" numLanes="1" speed="5.56" allow="pedestrian delivery bicycle" oneway="0"/>
    <type id="highway.tertiary" priority="10" numLanes="1" speed="22.22" disallow="tram rail_urban rail rail_electric rail_fast ship container cable_car subway aircraft wheelchair scooter drone" oneway="0"/>
    <type id="railway.subway" priority="18" numLanes="1" speed="27.78" allow="subway" oneway="1"/>

    <edge id=":10091502373_0" function="internal">
        <lane id=":10091502373_0_0" index="0" disallow="tram rail_urban rail rail_electric rail_fast ship container cable_car subway aircraft wheelchair scooter drone" speed="27.78" length="9.41" shape="951.75,685.92 961.16,685.86"/>
        <lane id=":10091502373_0_1" index="1" disallow="tram rail_urban rail rail_electric rail_fast ship container cable_car subway aircraft wheelchair scooter drone" speed="27.78" length="9.41" shape="951.77,689.12 961.18,689.06"/>
    </edge>
    <edge id=":10091502373_2" function="internal">
        <lane id=":10091502373_2_0" index="0" allow="pedestrian delivery bicycle" speed="6.07" length="7.78" shape="951.77,689.12 954.54,689.29 956.51,689.87 957.69,690.84 958.08,692.21"/>
    </edge>
    <edge id=":10091502373_3" function="internal">
        <lane id=":10091502373_3_0" index="0" allow="pedestrian delivery bicycle" speed="6.10" length="7.77" shape="954.88,692.21 955.28,690.84 956.46,689.86 958.43,689.27 961.18,689.06"/>
    </edge>
    <edge id=":10091502373_4" function="internal">
        <lane id=":10091502373_4_0" index="0" allow="pedestrian delivery bicycle" speed="3.65" length="4.67" shape="954.88,692.21 955.69,691.01 956.49,690.61 957.29,691.01 958.08,692.21"/>
    </edge>
    <edge id=":10091502374_0" function="internal">
        <lane id=":10091502374_0_0" index="0" allow="pedestrian delivery bicycle" speed="3.65" length="4.67" shape="958.03,728.01 957.23,729.21 956.43,729.61 955.63,729.21 954.83,728.01"/>
    </edge>
    <edge id=":10091521631_0" function="internal">
        <lane id=":10091521631_0_0" index="0" disallow="tram rail_urban rail rail_electric rail_fast ship container cable_car subway aircraft wheelchair scooter drone" speed="3.65" length="4.67" shape="848.63,602.97 847.94,604.24 847.18,604.70 846.35,604.38 845.45,603.25"/>
    </edge>
    <edge id=":10091521632_0" function="internal">
        <lane id=":10091521632_0_0" index="0" disallow="tram rail_urban rail rail_electric rail_fast ship container cable_car subway aircraft wheelchair scooter drone" speed="3.65" length="4.67" shape="1006.15,568.54 1004.86,567.89 1004.36,567.15 1004.66,566.30 1005.75,565.36"/>
    </edge>
    <edge id=":10091521635_0" function="internal">
        <lane id=":10091521635_0_0" index="0" disallow="tram rail_urban rail rail_electric rail_fast ship container cable_car subway aircraft wheelchair scooter drone" speed="6.38" length="9.04" shape="1123.89,306.10 1123.24,303.68 1121.98,302.10 1120.11,301.35 1117.61,301.43"/>
    </edge>
    <edge id=":10091521635_1" function="internal">
        <lane id=":10091521635_1_0" index="0" disallow="tram rail_urban rail rail_electric rail_fast ship container cable_car subway aircraft wheelchair scooter drone" speed="8.19" length="14.28" shape="1123.89,306.10 1123.96,302.14 1125.21,299.10 1127.64,296.98 1131.25,295.77"/>
    </edge>
    <edge id=":10091521635_2" function="internal">
        <lane id=":10091521635_2_0" index="0" disallow="tram rail_urban rail rail_electric rail_fast ship container cable_car subway aircraft wheelchair scooter drone" speed="3.65" length="4.67" shape="1123.89,306.10 1124.54,304.81 1125.29,304.32 1126.13,304.62 1127.06,305.72"/>
    </edge>
    <edge id=":10091521635_3" function="internal">
        <lane id=":10091521635_3_0" index="0" disallow="tram rail_urban rail rail_electric rail_fast ship container cable_car subway aircraft wheelchair scooter drone" speed="6.74" length="9.33" shape="1131.80,298.92 1129.47,299.71 1127.90,301.10 1127.10,303.11 1127.06,305.72"/>
    </edge>
    <edge id=":10091521635_4" function="internal">
        <lane id=":10091521635_4_0" index="0" disallow="tram rail_urban rail rail_electric rail_fast ship container cable_car subway aircraft wheelchair scooter drone" speed="13.89" length="14.41" shape="1131.80,298.92 1117.61,301.43"/>
    </edge>
    <edge id=":10091521635_5" function="internal">
        <lane id=":10091521635_5_0" index="0" disallow="tram rail_urban rail rail_electric rail_fast ship container cable_car subway aircraft wheelchair scooter drone" speed="3.65" length="1.44" shape="1131.80,298.92 1130.48,298.35"/>
    </edge>
    <edge id=":10091521635_9" function="internal">
        <lane id=":10091521635_9_0" index="0" disallow="tram rail_urban rail rail_electric rail_fast ship container cable_car subway aircraft wheelchair scooter drone" speed="3.65" length="3.23" shape="1130.48,298.35 1129.95,297.63 1130.20,296.77 1131.25,295.77"/>
    </edge>
    <edge id=":10091521635_6" function="internal">
        <lane id=":10091521635_6_0" index="0" disallow="tram rail_urban rail rail_electric rail_fast ship container cable_car subway aircraft wheelchair scooter drone" speed="13.89" length="14.41" shape="1117.05,298.28 1131.25,295.77"/>
    </edge>
    <edge id=":10091521635_7" function="internal">
        <lane id=":10091521635_7_0" index="0" disallow="tram rail_urban rail rail_electric rail_fast ship container cable_car subway aircraft wheelchair scooter drone" speed="7.90" length="4.12" shape="1117.05,298.28 1121.03,298.15 1121.16,298.20"/>
    </edge>
    <edge id=":10091521635_8" function="internal">
        <lane id=":10091521635_8_0" index="0" disallow="tram rail_urban rail rail_electric rail_fast ship container cable_car subway aircraft wheelchair scooter drone" speed="3.65" length="1.44" shape="1117.05,298.28 1118.38,298.86"/>
    </edge>
    <edge id=":10091521635_10" function="internal">
        <lane id=":10091521635_10_0" index="0" disallow="tram rail_urban rail rail_electric rail_fast ship container cable_car subway aircraft wheelchair scooter drone" speed="7.90" length="10.30" shape="1121.16,298.20 1124.03,299.35 1126.04,301.87 1127.06,305.72"/>
    </edge>
    <edge id=":10091521635_11" function="internal">
        <lane id=":10091521635_11_0" index="0" disallow="tram rail_urban rail rail_electric rail_fast ship container cable_car subway aircraft wheelchair scooter drone" speed="3.65" length="3.23" shape="1118.38,298.86 1118.91,299.58 1118.65,300.44 1117.61,301.43"/>
    </edge>
    <edge id=":10091521636_0" function="internal">
        <lane id=":10091521636_0_0" index="0" allow="pedestrian delivery bicycle" speed="5.47" length="5.51" shape="1218.70,585.99 1217.43,586.36 1216.52,587.15 1215.96,588.37 1215.77,590.00"/>
    </edge>
    <edge id=":10091521636_1" function="internal">
        <lane id=":10091521636_1_0" index="0" disallow="tram rail_urban rail rail_electric rail_fast ship container cable_car subway aircraft wheelchair scooter drone" speed="22.22" length="9.45" shape="1218.70,585.99 1209.31,587.04"/>
    </edge>
    <edge id=":10091521636_2" function="internal">
        <lane id=":10091521636_2_0" index="0" disallow="tram rail_urban rail rail_electric rail_fast ship container cable_car subway aircraft wheelchair scooter drone" speed="22.22" length="9.45" shape="1208.96,583.86 1218.34,582.81"/>
    </edge>
    <edge id=":10091521636_3" function="internal">
        <lane id=":10091521636_3_0" index="0" allow="pedestrian delivery bicycle" speed="6.77" length="3.38" shape="1208.96,583.86 1211.96,583.95 1212.29,584.12"/>
    </edge>
    <edge id=":10091521636_7" function="internal">
        <lane id=":10091521636_7_0" index="0" allow="pedestrian delivery bicycle" speed="6.77" length="7.39" shape="1212.29,584.12 1214.09,585.01 1215.36,587.02 1215.77,590.00"/>
    </edge>
    <edge id=":10091521636_4" function="internal">
        <lane id=":10091521636_4_0" index="0" allow="pedestrian delivery bicycle" speed="4.92" length="5.15" shape="1212.57,589.97 1212.38,588.55 1211.77,587.59 1210.75,587.09 1209.31,587.04"/>
    </edge>
    <edge id=":10091521636_5" function="internal">
        <lane id=":10091521636_5_0" index="0" allow="pedestrian delivery bicycle" speed="7.19" length="10.23" shape="1212.57,589.97 1212.95,587.08 1214.04,584.92 1215.84,583.49 1218.34,582.81"/>
    </edge>
    <edge id=":10091521636_6" function="internal">
        <lane id=":10091521636_6_0" index="0" allow="pedestrian delivery bicycle" speed="3.65" length="4.67" shape="1212.57,589.97 1213.38,588.78 1214.18,588.39 1214.98,588.79 1215.77,590.00"/>
    </edge>
    <edge id=":10091521637_0" function="internal">
        <lane id=":10091521637_0_0" index="0" allow="pedestrian delivery bicycle" speed="3.65" length="4.67" shape="1215.55,620.81 1214.74,622.01 1213.94,622.40 1213.14,621.99 1212.35,620.79"/>
    </edge>
    <edge id=":10091528869_0" function="internal">
        <lane id=":10091528869_0_0" index="0" disallow="tram rail_urban rail rail_electric rail_fast ship container cable_car subway aircraft wheelchair scooter drone" speed="13.89" length="14.40" shape="513.64,264.75 499.40,266.93"/>
    </edge>
    <edge id=":10091528869_1" function="internal">
        <lane id=":10091528869_1_0" index="0" disallow="tram rail_urban rail rail_electric rail_fast ship container cable_car subway aircraft wheelchair scooter drone" speed="8.00" length="4.07" shape="513.64,264.75 509.75,264.79 509.58,264.72"/>
    </edge>
    <edge id=":10091528869_2" function="internal">
        <lane id=":10091528869_2_0" index="0" disallow="tram rail_urban rail rail_electric rail_fast ship container cable_car subway aircraft wheelchair scooter drone" speed="3.65" length="1.44" shape="513.64,264.75 512.33,264.14"/>
    </edge>
    <edge id=":10091528869_9" function="internal">
        <lane id=":10091528869_9_0" index="0" disallow="tram rail_urban rail rail_electric rail_fast ship container cable_car subway aircraft wheelchair scooter drone" speed="8.00" length="10.14" shape="509.58,264.72 506.78,263.57 504.74,261.10 503.62,257.36"/>
    </edge>
    <edge id=":10091528869_10" function="internal">
        <lane id=":10091528869_10_0" index="0" disallow="tram rail_urban rail rail_electric rail_fast ship container cable_car subway aircraft wheelchair scooter drone" speed="3.65" length="3.23" shape="512.33,264.14 511.82,263.41 512.09,262.56 513.16,261.59"/>
    </edge>
    <edge id=":10091528869_3" function="internal">
        <lane id=":10091528869_3_0" index="0" disallow="tram rail_urban rail rail_electric rail_fast ship container cable_car subway aircraft wheelchair scooter drone" speed="6.50" length="9.03" shape="506.79,256.89 507.50,259.26 508.79,260.84 510.68,261.61 513.16,261.59"/>
    </edge>
    <edge id=":10091528869_4" function="internal">
        <lane id=":10091528869_4_0" index="0" disallow="tram rail_urban rail rail_electric rail_fast ship container cable_car subway aircraft wheelchair scooter drone" speed="8.01" length="14.20" shape="506.79,256.89 506.81,260.79 505.59,263.76 503.12,265.80 499.40,266.93"/>
    </edge>
    <edge id=":10091528869_5" function="internal">
        <lane id=":10091528869_5_0" index="0" disallow="tram rail_urban rail rail_electric rail_fast ship container cable_car subway aircraft wheelchair scooter drone" speed="3.65" length="4.67" shape="506.79,256.89 506.17,258.20 505.44,258.71 504.59,258.43 503.62,257.36"/>
    </edge>
    <edge id=":10091528869_6" function="internal">
        <lane id=":10091528869_6_0" index="0" disallow="tram rail_urban rail rail_electric rail_fast ship container cable_car subway aircraft wheelchair scooter drone" speed="6.52" length="9.05" shape="498.92,263.76 501.29,263.05 502.86,261.74 503.64,259.85 503.62,257.36"/>
    </edge>
    <edge id=":10091528869_7" function="internal">
        <lane id=":10091528869_7_0" index="0" disallow="tram rail_urban rail rail_electric rail_fast ship container cable_car subway aircraft wheelchair scooter drone" speed="13.89" length="14.40" shape="498.92,263.76 513.16,261.59"/>
    </edge>
    <edge id=":10091528869_8" function="internal">
        <lane id=":10091528869_8_0" index="0" disallow="tram rail_urban rail rail_electric rail_fast ship container cable_car subway aircraft wheelchair scooter drone" speed="3.65" length="1.44" shape="498.92,263.76 500.23,264.37"/>
    </edge>
    <edge id=":10091528869_11" function="internal">
        <lane id=":10091528869_11_0" index="0" disallow="tram rail_urban rail rail_electric rail_fast ship container cable_car subway aircraft wheelchair scooter drone" speed="3.65" length="3.23" shape="500.23,264.37 500.74,265.10 500.47,265.95 499.40,266.93"/>
    </edge>
    <edge id=":10091528870_0" function="internal">
        <lane id=":10091528870_0_0" index="0" disallow="tram rail_urban rail rail_electric rail_fast ship container cable_car subway aircraft wheelchair scooter drone" speed="3.65" length="4.67" shape="499.68,230.91 500.29,229.60 501.02,229.09 501.87,229.37 502.84,230.43"/>
    </edge>
    <edge id=":10091528871_0" function="internal">
        <lane id=":10091528871_0_0" index="0" disallow="tram rail_urban rail rail_electric rail_fast ship container cable_car subway aircraft wheelchair scooter drone" speed="3.65" length="4.67" shape="525.51,223.54 526.11,222.23 526.84,221.71 527.69,221.98 528.67,223.04"/>
    </edge>
    <edge id=":10091680605_0" function="internal">
        <lane id=":10091680605_0_0" index="0" disallow="pedestrian tram rail_urban rail rail_electric rail_fast ship container cable_car subway aircraft wheelchair scooter drone" speed="27.78" length="9.44" shape="21.44,458.35 20.06,449.00"/>
        <lane id=":10091680605_0_1" index="1" disallow="pedestrian tram rail_urban rail rail_electric rail_fast ship container cable_car subway aircraft wheelchair scooter drone" speed="27.78" length="9.44" shape="24.61,457.87 23.23,448.55"/>
    </edge>
    <edge id=":10091680605_2" function="internal">
        <lane id=":10091680605_2_0" index="0" allow="delivery bicycle" speed="6.02" length="7.92" shape="24.61,457.87 24.40,455.08 24.72,453.04 25.59,451.76 27.00,451.22"/>
    </edge>
    <edge id=":10091680605_3" function="internal">
        <lane id=":10091680605_3_0" index="0" allow="delivery bicycle" speed="6.21" length="7.85" shape="27.30,454.41 25.85,454.16 24.69,453.09 23.81,451.22 23.23,448.55"/>
    </edge>
    <edge id=":10091680605_4" function="internal">
        <lane id=":10091680605_4_0" index="0" allow="pedestrian delivery bicycle" speed="3.65" length="4.67" shape="27.30,454.41 26.03,453.72 25.56,452.97 25.88,452.13 27.00,451.22"/>
    </edge>
    <edge id=":10091680606_0" function="internal">
        <lane id=":10091680606_0_0" index="0" allow="pedestrian delivery bicycle" speed="4.97" length="5.18" shape="101.24,447.88 99.81,447.93 98.79,448.45 98.17,449.42 97.95,450.86"/>
    </edge>
    <edge id=":10091680606_1" function="internal">
        <lane id=":10091680606_1_0" index="0" allow="pedestrian delivery bicycle" speed="5.56" length="9.76" shape="101.24,447.88 98.36,447.58 96.38,447.48 94.39,447.57 91.51,447.85"/>
    </edge>
    <edge id=":10091680606_2" function="internal">
        <lane id=":10091680606_2_0" index="0" allow="pedestrian delivery bicycle" speed="3.65" length="4.67" shape="101.24,447.88 100.13,446.96 99.82,446.12 100.31,445.37 101.59,444.70"/>
    </edge>
    <edge id=":10091680606_3" function="internal">
        <lane id=":10091680606_3_0" index="0" allow="pedestrian delivery bicycle" speed="5.56" length="10.44" shape="91.19,444.67 94.21,444.38 96.39,444.29 98.57,444.39 101.59,444.70"/>
    </edge>
    <edge id=":10091680606_4" function="internal">
        <lane id=":10091680606_4_0" index="0" allow="pedestrian delivery bicycle" speed="5.56" length="10.75" shape="91.19,444.67 94.18,444.79 96.31,445.86 97.56,447.89 97.95,450.86"/>
    </edge>
    <edge id=":10091680606_5" function="internal">
        <lane id=":10091680606_5_0" index="0" allow="pedestrian delivery bicycle" speed="3.65" length="4.67" shape="91.19,444.67 92.46,445.34 92.94,446.10 92.63,446.93 91.51,447.85"/>
    </edge>
    <edge id=":10091680606_6" function="internal">
        <lane id=":10091680606_6_0" index="0" allow="pedestrian delivery bicycle" speed="4.92" length="5.14" shape="94.75,450.81 94.56,449.39 93.96,448.42 92.95,447.91 91.51,447.85"/>
    </edge>
    <edge id=":10091680606_7" function="internal">
        <lane id=":10091680606_7_0" index="0" allow="pedestrian delivery bicycle" speed="5.56" length="10.70" shape="94.75,450.81 95.21,447.86 96.51,445.86 98.63,444.80 101.59,444.70"/>
    </edge>
    <edge id=":10091680606_8" function="internal">
        <lane id=":10091680606_8_0" index="0" allow="pedestrian delivery bicycle" speed="3.65" length="4.67" shape="94.75,450.81 95.56,449.62 96.37,449.24 97.16,449.65 97.95,450.86"/>
    </edge>
    <edge id=":10091685455_0" function="internal">
        <lane id=":10091685455_0_0" index="0" disallow="tram rail_urban rail rail_electric rail_fast ship container cable_car subway aircraft wheelchair scooter drone" speed="3.65" length="4.67" shape="326.45,632.70 327.26,631.51 328.06,631.11 328.86,631.51 329.65,632.72"/>
    </edge>
    <edge id=":10538723044_0" function="internal">
        <lane id=":10538723044_0_0" index="0" disallow="tram rail_urban rail rail_electric rail_fast ship container cable_car subway aircraft wheelchair scooter drone" speed="3.65" length="4.67" shape="1160.94,376.97 1162.18,377.71 1162.62,378.49 1162.26,379.31 1161.10,380.17"/>
    </edge>
    <edge id=":10538723048_0" function="internal">
        <lane id=":10538723048_0_0" index="0" disallow="tram rail_urban rail rail_electric rail_fast ship container cable_car subway aircraft wheelchair scooter drone" speed="13.89" length="14.33" shape="1133.36,387.47 1131.80,373.23"/>
    </edge>
    <edge id=":10538723048_1" function="internal">
        <lane id=":10538723048_1_0" index="0" disallow="tram rail_urban rail rail_electric rail_fast ship container cable_car subway aircraft wheelchair scooter drone" speed="7.92" length="3.97" shape="1133.36,387.47 1133.53,383.51"/>
    </edge>
    <edge id=":10538723048_2" function="internal">
        <lane id=":10538723048_2_0" index="0" disallow="tram rail_urban rail rail_electric rail_fast ship container cable_car subway aircraft wheelchair scooter drone" speed="3.65" length="1.44" shape="1133.36,387.47 1134.04,386.20"/>
    </edge>
    <edge id=":10538723048_9" function="internal">
        <lane id=":10538723048_9_0" index="0" disallow="tram rail_urban rail rail_electric rail_fast ship container cable_car subway aircraft wheelchair scooter drone" speed="7.92" length="10.41" shape="1133.53,383.51 1134.93,380.61 1137.58,378.77 1141.47,378.00"/>
    </edge>
    <edge id=":10538723048_10" function="internal">
        <lane id=":10538723048_10_0" index="0" disallow="tram rail_urban rail rail_electric rail_fast ship container cable_car subway aircraft wheelchair scooter drone" speed="3.65" length="3.23" shape="1134.04,386.20 1134.79,385.72 1135.63,386.04 1136.55,387.15"/>
    </edge>
    <edge id=":10538723048_3" function="internal">
        <lane id=":10538723048_3_0" index="0" disallow="tram rail_urban rail rail_electric rail_fast ship container cable_car subway aircraft wheelchair scooter drone" speed="6.40" length="9.04" shape="1141.64,381.20 1139.20,381.68 1137.53,382.84 1136.65,384.66 1136.55,387.15"/>
    </edge>
    <edge id=":10538723048_4" function="internal">
        <lane id=":10538723048_4_0" index="0" disallow="tram rail_urban rail rail_electric rail_fast ship container cable_car subway aircraft wheelchair scooter drone" speed="8.21" length="14.25" shape="1141.64,381.20 1137.71,380.88 1134.76,379.44 1132.79,376.89 1131.80,373.23"/>
    </edge>
    <edge id=":10538723048_5" function="internal">
        <lane id=":10538723048_5_0" index="0" disallow="tram rail_urban rail rail_electric rail_fast ship container cable_car subway aircraft wheelchair scooter drone" speed="3.65" length="4.67" shape="1141.64,381.20 1140.40,380.46 1139.96,379.69 1140.32,378.87 1141.47,378.00"/>
    </edge>
    <edge id=":10538723048_6" function="internal">
        <lane id=":10538723048_6_0" index="0" disallow="tram rail_urban rail rail_electric rail_fast ship container cable_car subway aircraft wheelchair scooter drone" speed="6.75" length="9.32" shape="1134.98,372.85 1135.63,375.22 1136.93,376.87 1138.87,377.80 1141.47,378.00"/>
    </edge>
    <edge id=":10538723048_7" function="internal">
        <lane id=":10538723048_7_0" index="0" disallow="tram rail_urban rail rail_electric rail_fast ship container cable_car subway aircraft wheelchair scooter drone" speed="13.89" length="14.38" shape="1134.98,372.85 1136.55,387.15"/>
    </edge>
    <edge id=":10538723048_8" function="internal">
        <lane id=":10538723048_8_0" index="0" disallow="tram rail_urban rail rail_electric rail_fast ship container cable_car subway aircraft wheelchair scooter drone" speed="3.65" length="1.44" shape="1134.98,372.85 1134.33,374.14"/>
    </edge>
    <edge id=":10538723048_11" function="internal">
        <lane id=":10538723048_11_0" index="0" disallow="tram rail_urban rail rail_electric rail_fast ship container cable_car subway aircraft wheelchair scooter drone" speed="3.65" length="3.23" shape="1134.33,374.14 1133.58,374.63 1132.74,374.32 1131.80,373.23"/>
    </edge>
    <edge id=":1070314187_0" function="internal">
        <lane id=":1070314187_0_0" index="0" disallow="pedestrian tram rail_urban rail rail_electric rail_fast ship container cable_car subway aircraft wheelchair scooter drone" speed="25.00" length="25.42" shape="39.54,578.76 38.87,574.13 38.21,568.01 37.56,560.93 36.91,553.47"/>
    </edge>
    <edge id=":1070314187_1" function="internal">
        <lane id=":1070314187_1_0" index="0" disallow="pedestrian tram rail_urban rail rail_electric rail_fast ship container cable_car subway aircraft wheelchair scooter drone" speed="27.78" length="23.15" shape="31.56,576.36 32.59,570.05 33.48,565.08 33.95,560.10 33.72,553.76"/>
        <lane id=":1070314187_1_1" index="1" disallow="pedestrian tram rail_urban rail rail_electric rail_fast ship container cable_car subway aircraft wheelchair scooter drone" speed="27.78" length="23.15" shape="34.73,576.79 35.77,570.37 36.66,565.15 37.13,559.93 36.91,553.47"/>
    </edge>
    <edge id=":1070314237_0" function="internal">
        <lane id=":1070314237_0_0" index="0" allow="subway" speed="0.10" length="0.10" shape="21.30,463.73 21.30,463.73"/>
    </edge>
    <edge id=":10792812731_0" function="internal">
        <lane id=":10792812731_0_0" index="0" disallow="pedestrian tram rail_urban rail rail_electric rail_fast ship container cable_car subway aircraft wheelchair scooter drone" speed="27.78" length="7.17" shape="142.14,731.81 134.88,731.47"/>
        <lane id=":10792812731_0_1" index="1" disallow="pedestrian tram rail_urban rail rail_electric rail_fast ship container cable_car subway aircraft wheelchair scooter drone" speed="27.78" length="7.17" shape="142.11,728.61 135.03,728.28"/>
    </edge>
    <edge id=":10792812731_2" function="internal">
        <lane id=":10792812731_2_0" index="0" disallow="pedestrian tram rail_urban rail rail_electric rail_fast ship container cable_car subway aircraft wheelchair scooter drone" speed="20.03" length="6.45" shape="142.08,725.41 140.17,725.47 138.84,725.49 137.54,725.30 135.73,724.74"/>
    </edge>
    <edge id=":10980488466_0" function="internal">
        <lane id=":10980488466_0_0" index="0" disallow="tram rail_urban rail rail_electric rail_fast ship container cable_car subway aircraft wheelchair scooter drone" speed="13.89" length="14.36" shape="996.34,425.03 982.08,426.67"/>
    </edge>
    <edge id=":10980488466_1" function="internal">
        <lane id=":10980488466_1_0" index="0" disallow="tram rail_urban rail rail_electric rail_fast ship container cable_car subway aircraft wheelchair scooter drone" speed="8.07" length="4.00" shape="996.34,425.03 992.49,424.90 992.36,424.84"/>
    </edge>
    <edge id=":10980488466_2" function="internal">
        <lane id=":10980488466_2_0" index="0" disallow="tram rail_urban rail rail_electric rail_fast ship container cable_car subway aircraft wheelchair scooter drone" speed="3.65" length="1.44" shape="996.34,425.03 995.06,424.37"/>
    </edge>
    <edge id=":10980488466_9" function="internal">
        <lane id=":10980488466_9_0" index="0" disallow="tram rail_urban rail rail_electric rail_fast ship container cable_car subway aircraft wheelchair scooter drone" speed="8.07" length="10.20" shape="992.36,424.84 989.57,423.56 987.59,421.01 986.54,417.25"/>
    </edge>
    <edge id=":10980488466_10" function="internal">
        <lane id=":10980488466_10_0" index="0" disallow="tram rail_urban rail rail_electric rail_fast ship container cable_car subway aircraft wheelchair scooter drone" speed="3.65" length="3.23" shape="995.06,424.37 994.57,423.62 994.88,422.78 995.99,421.85"/>
    </edge>
    <edge id=":10980488466_3" function="internal">
        <lane id=":10980488466_3_0" index="0" disallow="tram rail_urban rail rail_electric rail_fast ship container cable_car subway aircraft wheelchair scooter drone" speed="6.59" length="9.12" shape="989.71,416.83 990.38,419.25 991.66,420.90 993.52,421.76 995.99,421.85"/>
    </edge>
    <edge id=":10980488466_4" function="internal">
        <lane id=":10980488466_4_0" index="0" disallow="tram rail_urban rail rail_electric rail_fast ship container cable_car subway aircraft wheelchair scooter drone" speed="7.98" length="14.24" shape="989.71,416.83 989.67,420.74 988.39,423.68 985.86,425.66 982.08,426.67"/>
    </edge>
    <edge id=":10980488466_5" function="internal">
        <lane id=":10980488466_5_0" index="0" disallow="tram rail_urban rail rail_electric rail_fast ship container cable_car subway aircraft wheelchair scooter drone" speed="3.65" length="4.67" shape="989.71,416.83 989.08,418.12 988.34,418.63 987.49,418.33 986.54,417.25"/>
    </edge>
    <edge id=":10980488466_6" function="internal">
        <lane id=":10980488466_6_0" index="0" disallow="tram rail_urban rail rail_electric rail_fast ship container cable_car subway aircraft wheelchair scooter drone" speed="6.48" length="9.03" shape="981.70,423.49 984.09,422.85 985.70,421.60 986.51,419.73 986.54,417.25"/>
    </edge>
    <edge id=":10980488466_7" function="internal">
        <lane id=":10980488466_7_0" index="0" disallow="tram rail_urban rail rail_electric rail_fast ship container cable_car subway aircraft wheelchair scooter drone" speed="13.89" length="14.39" shape="981.70,423.49 995.99,421.85"/>
    </edge>
    <edge id=":10980488466_8" function="internal">
        <lane id=":10980488466_8_0" index="0" disallow="tram rail_urban rail rail_electric rail_fast ship container cable_car subway aircraft wheelchair scooter drone" speed="3.65" length="1.44" shape="981.70,423.49 982.98,424.14"/>
    </edge>
    <edge id=":10980488466_11" function="internal">
        <lane id=":10980488466_11_0" index="0" disallow="tram rail_urban rail rail_electric rail_fast ship container cable_car subway aircraft wheelchair scooter drone" speed="3.65" length="3.23" shape="982.98,424.14 983.48,424.89 983.17,425.73 982.08,426.67"/>
    </edge>